tests/fuzzer/corpus_json/24_columnar_21_random_033.json
{
  "version": "1.0",
  "type": "input",
  "is_batch": false,
  "attributes": {
    "node": [
      "id",
      "u_rated"
    ],
    "source": [
      "id",
      "node",
      "status",
      "u_ref",
      "u_ref_angle",
      "sk",
      "rx_ratio",
      "z01_ratio"
    ],
    "line": [
      "id",
      "from_node",
      "to_node",
      "from_status",
      "to_status",
      "r1",
      "x1",
      "c1",
      "tan1",
      "r0",
      "x0",
      "c0",
      "tan0",
      "i_n"
    ],
    "sym_load": [
      "id",
      "node",
      "status",
      "type",
      "p_specified",
      "q_specified"
    ]
  },
  "data": {
    "node": [
      [
        0,
        400.0
      ],
      [
        1,
        400.0
      ],
      [
        2,
        400.0
      ],
      [
        3,
        400.0
      ],
      [
        4,
        400.0
      ],
      [
        5,
        400.0
      ],
      [
        6,
        400.0
      ],
      [
        7,
        400.0
      ],
      [
        8,
        400.0
      ],
      [
        9,
        400.0
      ],
      [
        10,
        400.0
      ]
    ],
    "source": [
      [
        11,
        0,
        1,
        1.0634007719766547,
        0.0,
        632269772.2792207,
        0.1386454272231724,
        1.0
      ]
    ],
    "line": [
      [
        12,
        0,
        1,
        1,
        1,
        4.454054777796406,
        4.54414261606934,
        1.865125594975845e-07,
        0.0,
        0.3,
        0.3,
        1e-09,
        0.0,
        655.209838346751
      ],
      [
        13,
        1,
        2,
        1,
        1,
        3.085586389284836,
        2.5169691935552367,
        9.661979651974596e-07,
        0.0,
        0.3,
        0.3,
        1e-09,
        0.0,
        532.983562619652
      ],
      [
        14,
        2,
        3,
        1,
        1,
        2.2262704850064425,
        4.717805783186785,
        6.356198271421528e-07,
        0.0,
        0.3,
        0.3,
        1e-09,
        0.0,
        308.2815119596683
      ],
      [
        15,
        3,
        4,
        1,
        1,
        1.5462970926702653,
        2.480502832638317,
        5.259804236206777e-08,
        0.0,
        0.3,
        0.3,
        1e-09,
        0.0,
        611.5058793965236
      ],
      [
        16,
        4,
        5,
        1,
        1,
        3.6792730419794233,
        2.130709060104163,
        8.465878686344782e-07,
        0.0,
        0.3,
        0.3,
        1e-09,
        0.0,
        928.7047000696288
      ],
      [
        17,
        5,
        6,
        1,
        1,
        2.77803986388299,
        3.406763011426437,
        1.1725731093115698e-07,
        0.0,
        0.3,
        0.3,
        1e-09,
        0.0,
        65.45935888677423
      ],
      [
        18,
        6,
        7,
        1,
        1,
        4.900112110661477,
        1.4222005380395748,
        2.1336270861708095e-07,
        0.0,
        0.3,
        0.3,
        1e-09,
        0.0,
        897.6947208908629
      ],
      [
        19,
        7,
        8,
        1,
        1,
        3.749095699408942,
        0.6159143393304722,
        3.216711414573171e-07,
        0.0,
        0.3,
        0.3,
        1e-09,
        0.0,
        250.25144657243493
      ],
      [
        20,
        8,
        9,
        1,
        1,
        1.3635296493808702,
        0.031864432762268025,
        5.246836368628076e-07,
        0.0,
        0.3,
        0.3,
        1e-09,
        0.0,
        311.2991758398461
      ],
      [
        21,
        9,
        10,
        1,
        1,
        1.971047088095634,
        0.927180785216804,
        1.1008489041914825e-07,
        0.0,
        0.3,
        0.3,
        1e-09,
        0.0,
        42.58548744717719
      ]
    ],
    "sym_load": [
      [
        22,
        3,
        1,
        0,
        -87335.3285358107,
        -8134.695422701128
      ],
      [
        23,
        5,
        1,
        1,
        -44919.14309834244,
        -5942.104776638715
      ],
      [
        24,
        6,
        1,
        2,
        -22290.315541923817,
        1953.2159676373376
      ],
      [
        25,
        8,
        1,
        1,
        57032.242210125754,
        -3839.868532701341
      ],
      [
        26,
        9,
        1,
        1,
        -24046.125443027995,
        5157.586601451934
      ],
      [
        27,
        10,
        1,
        2,
        74545.59541313312,
        -9703.461388211634
      ]
    ]
  }
}
